/*--------------------------------*- C++ -*----------------------------------*\
| =========                 |                                                 |
| \\      /  F ield         | OpenFOAM: The Open Source CFD Toolbox           |
|  \\    /   O peration     | Version:  v2206                                 |
|   \\  /    A nd           | Website:  www.openfoam.com                      |
|    \\/     M anipulation  |                                                 |
\*---------------------------------------------------------------------------*/
FoamFile
{
    version     2.0;
    format      ascii;
    class       dictionary;
    object      fvOptions;
}
// * * * * * * * * * * * * * * * * * * * * * * * * * * * * * * * * * * * * * //

limitAirTemperature
{
    type            limitTemperature;
    min             300;
    max             800;
    selectionMode   all;
    active          yes;
}

porousZone                                                                     
{                                                                               
    type            explicitPorositySource;                                     
                                                                                
    explicitPorositySourceCoeffs
    {
        type            DarcyForchheimer;

        DarcyForchheimerCoeffs
        {
            d   d [0 -2 0 0 0 0 0] (5e7 -1000 -1000);
            f   f [0 -1 0 0 0 0 0] (0 0 0);

            coordinateSystem
            {
                origin  (0 0 0);
                e1      (1 0 0);
                e2      (0 0 1);
            }
        }
    }                                                                       
}  
