/*--------------------------------*- C++ -*----------------------------------*\
| =========                 |                                                 |
| \\      /  F ield         | OpenFOAM: The Open Source CFD Toolbox           |
|  \\    /   O peration     | Version:  v2112                                 |
|   \\  /    A nd           | Website:  www.openfoam.com                      |
|    \\/     M anipulation  |                                                 |
\*---------------------------------------------------------------------------*/
FoamFile
{
    version     2.0;
    format      ascii;
    class       volScalarField;
    object      TBed;
}
// * * * * * * * * * * * * * * * * * * * * * * * * * * * * * * * * * * * * * //

dimensions      [0 0 0 1 0 0 0];

internalField   uniform 300;

boundaryField
{
    bottom
    {
        type            zeroGradient;
        value           uniform 300;
    }

    top
    {
        type            zeroGradient;
        value           uniform 300;
    }

    walls
    {
        type            zeroGradient;
        value           uniform 300;
    }

    defaultFaces
    {
        type            empty;
    }
}


// ************************************************************************* //
