/*--------------------------------*- C++ -*----------------------------------*\
| =========                 |                                                 |
| \\      /  F ield         | OpenFOAM: The Open Source CFD Toolbox           |
|  \\    /   O peration     | Version:  v2206                                 |
|   \\  /    A nd           | Website:  www.openfoam.com                      |
|    \\/     M anipulation  |                                                 |
\*---------------------------------------------------------------------------*/
FoamFile
{
    version     2.0;
    format      ascii;
    class       dictionary;
    object      fvSchemes;
}
// * * * * * * * * * * * * * * * * * * * * * * * * * * * * * * * * * * * * * //

ddtSchemes
{
    default         Euler;
}

gradSchemes
{
    default         Gauss linear;
    grad(U)         Gauss linear;
    grad(alpha1)    Gauss linear;
}

divSchemes
{
    div(((rhof*phi)|interpolate(porosity)),U) Gauss linearUpwind grad(U);//Gauss limitedLinearV 1;
//    div(rhoPhi,U)   Gauss limitedLinearV 1;
    div(((rho*nuEff)*dev2(T(grad(U))))) Gauss upwind;//linear;
//    div(phi,Tf)      Gauss linearUpwind grad(Tf);
    div(((rhof*cpf)*phi),Tf) Gauss upwind;//linearUpwind grad(Tf);
}

laplacianSchemes
{
    default         Gauss linear corrected;
}

interpolationSchemes
{
    default         linear;
}

snGradSchemes
{
    default         corrected;
}

fluxRequired
{
    default         no;
    p_rgh;
    pcorr;
//    alpha.water;
}


// ************************************************************************* //
